52
 energy: -72.644752977523 gnorm: 0.000488379552 xtb: 6.7.1 (edcfbbe)
Ru          -1.74573256467309       -1.59131790141399        0.37431781103469
H           -3.18464961271386       -1.07224539173204        0.63682244409413
N           -1.33927980402737       -1.05692729340795        2.33743842618977
C           -1.86303425600559       -1.76344517204075        3.35853709664466
C           -0.56766122302786        0.00725821581450        2.63361693652615
C           -1.61907791678493       -1.43772715686323        4.68463693870307
C           -0.30181464813461        0.38670373645816        3.94112368707017
C           -0.82639662728082       -0.34525683683080        4.99200212261329
H           -2.05813923822420       -2.03713370763947        5.46786886868646
H            0.31976773732579        1.24944147100031        4.12381454440828
H           -0.62677565158669       -0.07224630095779        6.01615458143589
P           -2.35726131583806       -3.56193886436981        1.34682350558939
C           -3.96393502325125       -4.46139940146614        0.87922126991390
C           -1.01631503956377       -4.86017397210519        1.74948730328679
P           -1.04363090272166        0.49841642578852        0.02359769398849
O           -0.11337629866303        0.96768539139080       -1.21120539190156
O           -1.93376060298817        1.82200093940886        0.17219764634432
C           -2.77387449221175       -2.90456645572986        3.02836570498515
H           -3.78822268638622       -2.49995562113206        2.92154885087788
H           -2.77733748903883       -3.65944399082653        3.81898673517343
C            0.02925016241746        0.77673586783797        1.49993908600296
H            0.13121830751839        1.83967668487872        1.73084485909234
H            1.01607836380294        0.36583147489814        1.25723043491601
C           -2.10818588353657       -2.04414733591555       -1.37310390850674
O           -2.31109395042261       -2.31563705892485       -2.48128921435975
H           -0.24947351351462       -2.00131763029719        0.18472721437772
C           -4.65410263486599       -5.20361351927061        2.02482208060988
C           -4.93347906232915       -3.40017534651707        0.35489223062211
C           -3.65480729788792       -5.41051636965735       -0.27933374405477
H           -4.98101733583406       -4.51559335637296        2.80102998150941
H           -5.54060763901768       -5.70106152194438        1.63141767080927
H           -4.02371817284898       -5.96113621767439        2.47512886175118
H           -4.51241430826257       -2.89695408860520       -0.51333400441670
H           -5.87169914112126       -3.87215177339766        0.06445104336091
H           -5.15307710836888       -2.64645849696477        1.10802027003218
H           -3.02801574305808       -4.90173529451691       -1.01344408563677
H           -3.15101495841628       -6.31237765258676        0.05839146120340
H           -4.57941561946229       -5.71067488370003       -0.77160575329150
C            0.03705119542504       -4.12299425313267        2.58308102300549
C           -1.46181691368844       -6.09439190472291        2.53013617450438
C           -0.36966986494766       -5.27955662374309        0.42806827602935
H           -0.32003240265661       -3.90467550666692        3.58843534328379
H            0.93247592180512       -4.73744552020862        2.67305778375108
H            0.32002425374742       -3.19076090153030        2.09516072891255
H           -2.10359648744578       -6.73993474108657        1.93749167764088
H           -0.57817719076086       -6.67299820334356        2.80098491781530
H           -1.97405576301037       -5.82575533978897        3.45214871469506
H           -0.99699336550168       -5.96702778201084       -0.13100383466421
H           -0.18822361822527       -4.39831263643280       -0.18742574060083
H            0.58391984192810       -5.77171238527039        0.61616244811317
H           -2.76350775354408        1.75759368515742       -0.30712762167029
H            0.33379655157929        0.21581311537443       -1.60610649018200
