62
 energy: -77.079119016597 gnorm: 0.000957443123 xtb: 6.7.1 (edcfbbe)
Ru          -1.30062570397646       -1.85350932237135        0.35343561957187
H           -2.67079487291727       -1.20990886393183        0.01124060764849
N           -1.43540864862255       -0.97105869691455        2.21330952642653
C           -1.97455062152968       -1.63678238994926        3.25523545210435
C           -0.83829842481218        0.21017419423559        2.46768470728959
C           -1.78457810076317       -1.23354606854385        4.56790185772444
C           -0.61000302762451        0.65890700636797        3.75919073058396
C           -1.04850840246037       -0.09167533995246        4.83774618492162
H           -2.21407172179835       -1.81353572581211        5.37052307331122
H           -0.09604786986578        1.59566105368748        3.91314240429072
H           -0.85769534901076        0.22352403967574        5.85121647991797
P           -2.26784249679914       -3.63823600761432        1.40878908111005
C           -3.85659160333280       -4.47234444611556        0.77377583157886
C           -1.12999451859320       -4.98082714395933        2.15413303077131
P           -0.29112022490058        0.07207841531297       -0.22529565021603
C            1.51553249947083        0.28342889491595       -0.57015780182531
C           -1.02036034502379        1.14828049279204       -1.54006760738161
C           -2.87428274694241       -2.79123918941282        2.93911131473692
H           -3.85094349344709       -2.37015554738981        2.66576608515091
H           -3.00628858671764       -3.45780043400888        3.79454677134033
C           -0.50431466158751        1.09426969958935        1.30198948727231
H           -1.37482880671028        1.74040194393719        1.12316213245031
H            0.36073677553738        1.72915673814124        1.51205266147341
C           -1.16024364623524       -2.63031061134736       -1.31230406561594
O           -1.08210525743796       -3.09990591482147       -2.36784574875352
H            0.08940872380047       -2.38239961857708        0.76935300500009
C           -4.77370996572495       -5.06807328142779        1.84270064523742
C           -4.64439587688386       -3.39193784490230        0.02991877035862
C           -3.45140312046875       -5.53125877460001       -0.25226050826505
H           -5.12098493121354       -4.30655763974145        2.53697016551917
H           -5.65066851794844       -5.48924066826764        1.35105434101992
H           -4.30192203181179       -5.86287085958116        2.40709277611905
H           -4.05977683813863       -3.00321648582310       -0.80120716690397
H           -5.57026200053068       -3.81333978883890       -0.36079361264615
H           -4.90073999867676       -2.55848328284429        0.68169723123036
H           -2.68678382975406       -5.12417182064443       -0.91620776007276
H           -3.06944267506465       -6.43202286526824        0.22141689535726
H           -4.31243112347408       -5.81324633142119       -0.85772740342921
C           -0.20334974590061       -4.26023811261088        3.13934411090704
C           -1.81106524755823       -6.12240379511218        2.90618934616153
C           -0.28336741343732       -5.54395105839586        1.01177157096119
H           -0.71596928159278       -4.00473079678638        4.06484679384288
H            0.63823279171465       -4.90465267615886        3.39090440267209
H            0.19635540367215       -3.35028989142750        2.69385697772433
H           -2.36946880296717       -6.77362134024851        2.24008432575705
H           -1.04166791541942       -6.72883908730230        3.38510780343536
H           -2.47209024839744       -5.75298768343382        3.68790590112063
H           -0.86640281667909       -6.18315453101460        0.35510132271676
H            0.12730728635169       -4.72636684981532        0.41951311347745
H            0.54272016387328       -6.13213176413487        1.41010063944304
C           -0.45924982475241        2.55438125458406       -1.71756427494856
H           -0.92861201507114        0.57731424457798       -2.47123703858721
H           -2.08835806305196        1.18771832084715       -1.29927182809645
H            0.54190793570237        2.53144049033558       -2.13990843627047
H           -1.09470684376615        3.11580183208859       -2.40056393614792
H           -0.42618244177932        3.08999561532663       -0.77079400627264
C            2.40071783687382       -0.37416282131014        0.47691231774888
H            1.69613527975421       -0.16713891331684       -1.55200204449433
H            1.73311879082992        1.35403664120826       -0.63078920681677
H            2.17606298329780       -1.43621907429570        0.53977496371129
H            3.45132224918557       -0.25459926500272        0.21782762267125
H            2.23538269882295        0.06595445666400        1.45954491553635
