66
 energy: -83.989028695211 gnorm: 0.000258082712 xtb: 6.7.1 (edcfbbe)
Ru          -1.03977862759890       -1.96522671317096        0.15185654309783
H           -2.43211067478777       -1.36050578835113       -0.14103938050046
N           -1.20801483001027       -1.02705020479431        1.98947828812544
C           -2.10499822702372       -1.45615257375803        2.89814595995218
C           -0.47188093996246        0.05880458477330        2.29279518513183
C           -2.28114800074006       -0.82461059327961        4.12050778426049
C           -0.61614277775064        0.73950832712734        3.49303019741398
C           -1.53064847409604        0.29599957614743        4.43232577084216
H           -3.01132447474928       -1.20988814758764        4.81635222013287
H           -0.00435314662950        1.60766053125738        3.68461196043010
H           -1.65547568205825        0.80610659962163        5.37457638251754
P           -2.11242671821775       -3.64686534265733        1.25240871312197
C           -3.57592653084937       -4.59173225666581        0.49201564832980
C           -1.08765065590015       -4.85548614493178        2.31983008312956
P           -0.01265159908914       -0.03535035207011       -0.38270530051556
N            1.43917407931854        0.26058075614147       -1.22984043511195
N           -0.89134129534612        1.31816711470079       -0.82943496920362
C           -2.96612621589847       -2.62718488213044        2.53968627990068
H           -3.86135194380009       -2.24019318777884        2.03686096194021
H           -3.27574709916677       -3.18661332316744        3.42673309689766
C            0.54351052032303        0.50749112062506        1.29616550560138
H            0.71777176345942        1.58616727778492        1.34612612271424
H            1.49235862798914       -0.00779437670409        1.48791315348868
C           -0.97767979035272       -2.75868862371282       -1.50509966220635
O           -0.97201873223489       -3.24003490470448       -2.56138926858739
H            0.37844098688946       -2.47624058927626        0.54016854980813
C           -4.64331404026270       -5.05972566799930        1.48271186993421
C           -4.24605972237553       -3.64518496959989       -0.50654627194018
C           -3.01367639378067       -5.77251264684145       -0.30058171902879
H           -5.12156075290245       -4.21725348575935        1.97696652845929
H           -5.41428925818513       -5.59923991997091        0.93223146366273
H           -4.25038029779339       -5.72858894027983        2.23909791946595
H           -3.54179755190286       -3.34754752718180       -1.28086018647970
H           -5.09065970294672       -4.14732021258111       -0.97811652836630
H           -4.61629410271695       -2.74357088625172       -0.02278373299403
H           -2.15256505566199       -5.44529033884356       -0.88574474887253
H           -2.71415980375013       -6.59039028008867        0.34973600369699
H           -3.76794784110248       -6.15346247233723       -0.98872736636919
C           -0.27892789869888       -3.97485301369323        3.27830233179010
C           -1.86168236767836       -5.87545862495726        3.15141493918090
C           -0.10703981896464       -5.57239478829649        1.38995146212000
H           -0.90724454435251       -3.52545556576873        4.04618617034194
H            0.48161378795180       -4.57456161548838        3.77800362037826
H            0.22931045247369       -3.18422433463905        2.72675399505232
H           -2.34104703464317       -6.62600225535129        2.52932082730555
H           -1.16120522954087       -6.39426863177552        3.80672603381207
H           -2.60995350561461       -5.39846116230807        3.78177796522253
H           -0.59214077630452       -6.35388961184060        0.81286854430285
H            0.33326314952875       -4.85417029957827        0.69784151166837
H            0.69441609648529       -6.02995424249133        1.96915254783565
C           -1.91630205984200        1.25989991161209       -1.85804546661932
C           -3.07429976675174        2.18486426192850       -1.50319690479292
H           -0.34163988728605        2.17290161978473       -0.85495131953238
H           -1.52083433209246        1.52730460630047       -2.84747707362686
H           -2.26527423989027        0.22248782143065       -1.89368708819143
H           -2.73794511022226        3.21875912926014       -1.45009753828901
H           -3.85664714443797        2.11033106661346       -2.25385133466549
H           -3.48492880642557        1.90333279003467       -0.53718425744185
C            2.53904797785912       -0.69233014660749       -1.16039756314341
C            2.44469725266874       -1.78716552094750       -2.21293250286803
H            1.21744535127397        0.45854827872372       -2.20453480545966
H            3.47445717068278       -0.13116031846318       -1.27868045864236
H            2.52922936799211       -1.14532328019840       -0.16684609433894
H            2.46216507314690       -1.36087789689670       -3.21496305291425
H            3.27605199702295       -2.48050449270045       -2.11442867294984
H            1.51306876009313       -2.33530696416941       -2.07852657834874
