60
 energy: -83.147989080014 gnorm: 0.000390717705 xtb: 6.7.1 (edcfbbe)
Ru          -1.22741648489665       -1.70900340913333        0.31028084719550
H           -2.61314341689302       -1.05300239480730        0.07111129912813
N           -1.35301429245498       -0.94913469575152        2.23481499790010
C           -2.20444537934578       -1.48599785413125        3.13105244022706
C           -0.61207330339857        0.10815904311300        2.62086069624528
C           -2.32129868024339       -0.99636672625198        4.42366492253761
C           -0.69749941407941        0.64767138805393        3.89607260173969
C           -1.55838941999624        0.08761201876054        4.82373532082975
H           -3.01553652602678       -1.46223873174489        5.10635118617645
H           -0.08200034695501        1.49535935935267        4.15425030751612
H           -1.63610610492519        0.48476322296215        5.82321302488265
P           -2.26936884581033       -3.50182691512364        1.27447326709580
C           -3.74885423347951       -4.36797995969644        0.45713882497893
C           -1.20620741414924       -4.79862139756304        2.18492204916074
P           -0.13536304027880        0.22159605170450       -0.07945591779755
C            1.52675175798212        0.32632788651159       -0.92736437438736
C           -0.92565108268999        1.78284901197871       -0.74875810122606
C           -3.08237772293632       -2.61119232195301        2.67980948510776
H           -3.98850782142011       -2.17278157868812        2.24264656978192
H           -3.37115633054543       -3.25637039808509        3.51348548340627
C            0.35038511585985        0.69349904361938        1.63592306990558
H            0.48282711157230        1.76992537122451        1.77911612149258
H            1.33543877580000        0.21484906260907        1.75410088670207
C           -1.15460277404240       -2.38857025894837       -1.40189908810487
O           -1.10268721472515       -2.81800571714248       -2.47428638185512
H            0.19073557589374       -2.26687033636481        0.62039432349359
C           -4.79137856002940       -4.93074149852738        1.42452890681424
C           -4.43968728518057       -3.32806530632334       -0.42763891612655
C           -3.20516512706935       -5.46560217503804       -0.45846632431658
H           -5.25874197070346       -4.14042992368996        2.00736313530465
H           -5.57426625088113       -5.41793678938927        0.84348957847714
H           -4.37980061319494       -5.66733413256932        2.10425243264932
H           -3.75425141083040       -2.95576680414430       -1.18657734377954
H           -5.29638808811115       -3.78169335726146       -0.92493789744735
H           -4.79650638687974       -2.47818273975486        0.15055273266509
H           -2.35543502756593       -5.08443862316055       -1.02710727632704
H           -2.89559909278802       -6.34383448517408        0.10209169428323
H           -3.97448976848887       -5.77601224992420       -1.16469260209305
C           -0.37002477845683       -4.01596049251550        3.20290522233342
C           -1.96189947948015       -5.89415542161536        2.93341655663920
C           -0.25491080848670       -5.42190782638803        1.16201819923428
H           -0.97578507243347       -3.64764062670906        4.02965504282546
H            0.40233268725982       -4.66259957032663        3.61791425678528
H            0.12634434092289       -3.17441692326481        2.72076950645911
H           -2.45838579311358       -6.58128884067775        2.25438134254712
H           -1.24601069211982       -6.47331279155817        3.51705447462389
H           -2.69260585884840       -5.48077038000924        3.62613428354548
H           -0.75855601979707       -6.14292286473256        0.52541505968230
H            0.17220592876730       -4.64204495487694        0.53149214791419
H            0.55912943663711       -5.93507709368813        1.67234928460975
O           -0.68710299527737        2.19114567013557       -1.85552170887280
C           -1.94023216632092        2.38231198202987        0.18138046823287
H           -2.37791942144355        1.59882576486748        0.80130752483491
H           -1.44899534356649        3.11332626358621        0.82378808390220
H           -2.71595465430058        2.89129843384554       -0.38705568862683
O            2.51260368494832        0.56569509857092       -0.27979178902519
C            1.46305747284187        0.05730406536541       -2.38805385687470
H            0.92478599524697       -0.87867254937141       -2.54969678931837
H            0.87460863158936        0.85531180174945       -2.84831355026242
H            2.45483228864203        0.01396125914192       -2.83259502766391
