56
 energy: -96.099084271115 gnorm: 0.000882691572 xtb: 6.7.1 (edcfbbe)
Ru          -1.44333435588399       -1.78902325317163        0.33002939365380
H           -2.85295988803366       -1.18075387847145        0.17344884523450
N           -1.40095193719809       -1.00338985467588        2.26923831403927
C           -1.96397801862901       -1.68326025112665        3.28789268052151
C           -0.70605357025771        0.11005141567211        2.56591220300942
C           -1.76272381980992       -1.32768576476517        4.61425467052023
C           -0.47003711495914        0.51316226782440        3.87159210119782
C           -0.98065727014883       -0.22880633014909        4.92265439447839
H           -2.22263879872420       -1.91200621223836        5.39599505304478
H            0.10971099985981        1.40411714999804        4.05410358420231
H           -0.79438618771854        0.05423533493122        5.94600380436476
P           -2.34788125153040       -3.62214292172631        1.37827653991326
C           -3.96206096025870       -4.43810165918504        0.79706624196321
C           -1.14159583747977       -4.95813819734861        2.00133905253552
P           -0.41693910933797        0.08393616216768       -0.14701388044447
C            1.39062063074189        0.10900134594714       -0.73382242224659
C           -0.91212909743989        1.56227178949562       -1.24745961025664
C           -2.88880385186648       -2.80830979109384        2.94970130012890
H           -3.86527829058649       -2.36563277138779        2.71393821481291
H           -3.00848114165088       -3.50243855497343        3.78469148991387
C           -0.21447822486681        0.98810855688930        1.44427050479674
H           -0.83340161473413        1.89695491807310        1.41645805441243
H            0.82645917491464        1.29429791027207        1.60516591776490
C           -1.46706856744324       -2.55212054800084       -1.35937991000474
O           -1.47617025585031       -3.07092977117015       -2.38515100519459
H           -0.02274187923406       -2.34037218869904        0.58188329520279
C           -4.81052146815473       -5.04852533825106        1.91430964222055
C           -4.79352354158899       -3.35087818173504        0.11326787817201
C           -3.61603960615642       -5.48786771487176       -0.25974543575679
H           -5.16291092089627       -4.28803214574027        2.60710521960564
H           -5.68743153577287       -5.51436114085877        1.46569809549290
H           -4.28392006271001       -5.81213880126911        2.47398911468005
H           -4.26931990737356       -2.95743832209617       -0.75518033918577
H           -5.74275639393011       -3.77175433858374       -0.21579096473520
H           -5.00855328113262       -2.52101395222742        0.78374511516280
H           -2.89796689375801       -5.07685024839175       -0.97041965049626
H           -3.20434106907493       -6.39108593870530        0.18275545110147
H           -4.51391011932614       -5.76767033986509       -0.80946000102053
C           -0.15655955391983       -4.25137914147190        2.93829227697623
C           -1.76217446719152       -6.12371903276371        2.76871765936053
C           -0.37405888488102       -5.48421765994871        0.78725128576858
H           -0.61577904327056       -3.99899920232147        3.89249157041245
H            0.69021935696054       -4.90625218646712        3.13761149088723
H            0.23198865679973       -3.34357348613796        2.47929067863073
H           -2.37327909209955       -6.75431236997966        2.13008090848235
H           -0.95696899531871       -6.74346670911191        3.16311860614316
H           -2.35593793291413       -5.78066880246847        3.61380215279139
H           -0.99743281220034       -6.11000431511857        0.15544973920810
H           -0.00331976581283       -4.65225117889696        0.18930686739877
H            0.47885734318601       -6.07745556951958        1.11332069805453
F           -0.32444188847079        2.72679514221804       -0.92532311717661
F           -0.63929782168570        1.31517123851640       -2.53042259890029
F           -2.22914280634166        1.76568748101921       -1.13599605418178
F            2.15225444228948       -0.46267511082735        0.21191486048188
F            1.54112233714621       -0.59311968671276       -1.85586685416380
F            1.91201237418589        1.32696003478428       -0.94432000223761
