56
 energy: -70.758198452039 gnorm: 0.000572281684 xtb: 6.7.1 (edcfbbe)
Ru          -1.32436017691584       -1.83958197668410        0.28893972468288
H           -2.72151204793675       -1.17743757800289        0.17524384691244
N           -1.27657732925243       -1.09557835566665        2.20766353176777
C           -2.07939968282789       -1.60071783577951        3.16598223346087
C           -0.47691247735253       -0.05976245875141        2.53528343919535
C           -2.09823880020035       -1.09493159241721        4.45696957497661
C           -0.46496601121253        0.49485320708279        3.80530191740550
C           -1.28327887132459       -0.02713603653483        4.79338178436948
H           -2.75837614015247       -1.53514960555706        5.18921019875938
H            0.19038832452880        1.32653542226409        4.01458505046877
H           -1.28697349539150        0.38506448527260        5.79011654430485
P           -2.31753652030759       -3.61250013468395        1.32224906671158
C           -3.87189529021940       -4.45597448680711        0.62592370977056
C           -1.22239280502370       -4.93640192064362        2.15827703461631
P           -0.33825343395377        0.12281600586127       -0.16667185486456
C            1.07440903992587        0.37013626606196       -1.30487222748949
C           -1.27367754975417        1.67732007280306       -0.45911164554234
C           -3.00844177343436       -2.71182073944836        2.78671824212795
H           -3.93723624464221       -2.25881597429487        2.41732677661394
H           -3.24414584467305       -3.35025480126369        3.64236881666217
C            0.43895553031544        0.46512677098753        1.47394458709073
H            0.68646646928330        1.51893649906509        1.63259995015557
H            1.36507998241427       -0.12518952409459        1.48289859279891
C           -1.38762323209889       -2.46413936286153       -1.44451783382071
O           -1.42088656075590       -2.83730513782362       -2.53991877253911
H            0.11491128999525       -2.40463828103825        0.46096003867525
C           -4.84872152420070       -5.00220994972459        1.66829919493736
C           -4.60957814601608       -3.40433054829351       -0.20539517948827
C           -3.41874244093313       -5.56064043953255       -0.32954533154118
H           -5.24740772351000       -4.20592339135437        2.29260021168052
H           -5.68796923401537       -5.46454384174767        1.14839654863832
H           -4.40292517010616       -5.75480816535788        2.30772485491369
H           -3.97042469929052       -3.03582992778698       -1.00551643860190
H           -5.50317687962625       -3.84524367271211       -0.64667445223973
H           -4.91619279776454       -2.55369092663675        0.39975284402983
H           -2.60865173784751       -5.19033010725152       -0.96011303069842
H           -3.08123407868226       -6.44497039843697        0.20478601845231
H           -4.24459433457306       -5.85730950215290       -0.97561796097198
C           -0.29499925835264       -4.16763115871849        3.10543893171215
C           -1.93758960850819       -6.01619965762497        2.96692826645431
C           -0.36236728100311       -5.57882528186859        1.06851385037996
H           -0.82772724355315       -3.78519999022712        3.97504463516908
H            0.49645133149328       -4.82647519060857        3.46215701969279
H            0.17470435276489       -3.33595161108261        2.58082692750494
H           -2.49398540161689       -6.69778834618615        2.32984301200515
H           -1.19041509043348       -6.60482291090257        3.50021369905696
H           -2.60900019619082       -5.58730811867896        3.70852224851160
H           -0.92403417146693       -6.29647850615970        0.47832774618124
H            0.02108169021550       -4.80662863384740        0.40117084442082
H            0.48341702887880       -6.10013841032408        1.51570993509260
H           -1.75199264028020        1.60818840981291       -1.43653237136143
H           -2.05249362834806        1.76388211699035        0.29930712506595
H           -0.61895618707912        2.54921219717193       -0.42771632968830
H            0.70119766075359        0.32127454397074       -2.32856432373481
H            1.55427503083927        1.33440989735646       -1.13317344187162
H            1.78603384079886       -0.44100568017468       -1.15587950141948
