54
 energy: -85.343608283142 gnorm: 0.000559158452 xtb: 6.7.1 (edcfbbe)
Ru          -1.57630873420846       -1.72722401889168        0.34026382515862
H           -3.00323451845807       -1.15721440039696        0.46454084701350
N           -1.30554046462237       -1.09939601617717        2.31958667905511
C           -1.93900142277466       -1.73134265853920        3.32613972707363
C           -0.51842267747414       -0.05063641089351        2.62249794999791
C           -1.76897854941930       -1.35710195068793        4.65170728159251
C           -0.32093463419954        0.37536255329492        3.92834311783818
C           -0.94266888971146       -0.29287245143136        4.96775520083089
H           -2.29216971667536       -1.89604822179668        5.42629024033410
H            0.32191198770661        1.22020473848053        4.11776800121589
H           -0.79597637356376        0.01258272028737        5.99121258627580
P           -2.40273157256931       -3.61233839550069        1.37567609704240
C           -4.02082166903738       -4.42712904326714        0.81273066401143
C           -1.16228161619235       -4.94460261433775        1.93643046981334
P           -0.65412795816434        0.22362230511010       -0.07812777132646
N            0.75634761635143        0.49312829065137       -1.19125335084967
N           -1.39797587458024        1.87356850883962       -0.52471031225939
C           -2.89490852185844       -2.82891793683058        2.97894188970689
H           -3.86924639516971       -2.36619916319119        2.77580918342257
H           -3.00826569302974       -3.53934552447606        3.80137037273509
C            0.17268310737226        0.66545706181905        1.50476641025408
H            0.22073859582688        1.74671593971683        1.67620543757832
H            1.20157991357477        0.28654248690343        1.39267943631597
C           -1.87211260245786       -2.28234790449752       -1.40566278555901
O           -2.06436291301187       -2.64138582829372       -2.47877287328056
H           -0.14727760086741       -2.32534569885482        0.31281756950034
C           -4.83486704064940       -5.07110116290049        1.93626843322552
C           -4.88274812019687       -3.33758118316709        0.17115174743331
C           -3.68086245861040       -5.44961540311083       -0.27272602450225
H           -5.17298770484766       -4.32963023005103        2.65618056011770
H           -5.72023095896115       -5.53167374243714        1.49933331494609
H           -4.28865987923842       -5.84472477196165        2.46258472472632
H           -4.38224032830576       -2.90711995692591       -0.69384319801061
H           -5.82680812967902       -3.76996262403854       -0.15743638445933
H           -5.10780855461240       -2.53326708824844        0.86842878759530
H           -2.96926339541978       -5.01937852498170       -0.97927247919317
H           -3.26337406613724       -6.36158528497558        0.14593768449327
H           -4.58170525254051       -5.71915947231018       -0.82222825897449
C           -0.13260089776925       -4.22728071812926        2.81588619353053
C           -1.74978349681830       -6.10199433766922        2.74109120351026
C           -0.44795403897673       -5.48080032380093        0.69485321841648
H           -0.55127543349187       -3.93796188832722        3.77851643288633
H            0.70957182680746       -4.89115687900735        3.00555682847197
H            0.25372227131774       -3.34166497104545        2.31285476444036
H           -2.37785878341760       -6.74343001139111        2.13002063770121
H           -0.92977939690514       -6.71318321413842        3.11757277791351
H           -2.31879486510764       -5.75142566398257        3.60000476094288
H           -1.08331238171127       -6.14283282550247        0.11492642068730
H           -0.13466226287260       -4.65556868514079        0.05609867840630
H            0.43866355092027       -6.03996440823580        0.98954943901533
O           -2.55614826072197        1.90066347982152       -0.83161115581008
O           -0.65025510152526        2.81116846838615       -0.35837996083374
O            0.41592553564012        0.76429987028532       -2.32250300202596
O            1.87079805273347        0.24475251035426       -0.80122157238532
