54
 energy: -76.781790680456 gnorm: 0.000970073057 xtb: 6.7.1 (edcfbbe)
Ru          -1.41874271912680       -1.82125198534061        0.36311156718667
H           -2.78886684063034       -1.09400586450618        0.33629848807028
N           -1.25710721183994       -1.13764826232709        2.31932761001460
C           -2.00292151196825       -1.68434350929927        3.29976570525332
C           -0.42548339562749       -0.12965444872494        2.64567686942392
C           -1.91635194953353       -1.25961763119517        4.61784965126239
C           -0.30460593417761        0.34180969094706        3.94470533023824
C           -1.05223110340117       -0.23321032974387        4.95760394630706
H           -2.53281324436837       -1.73080797833643        5.36798223736401
H            0.37866592011033        1.15038767409850        4.15266522124029
H           -0.96920054233844        0.11191546808924        5.97569191665572
P           -2.41015791119360       -3.60959966627210        1.39238784682370
C           -4.02187300975050       -4.37219986326778        0.74016030635332
C           -1.29746567691397       -4.98698590531151        2.10231521374573
P           -0.29538470720807        0.07522541407635       -0.08627078784777
C            1.17248862729414        0.31231002075779       -1.17174012368341
C           -1.23719559600613        1.59108082624528       -0.55042227979962
C           -2.98869268348477       -2.74584817177744        2.92457242491441
H           -3.91887019187009       -2.24612612213184        2.62561560801355
H           -3.20106496260351       -3.41386819355116        3.76309227454953
C            0.40697864593147        0.48885135100510        1.56373238281264
H            0.53118101504494        1.56698408528866        1.71376909555403
H            1.40590934497769        0.02568649073269        1.54645617793975
C           -1.60094369770261       -2.42978706411925       -1.37321853944523
O           -1.71962813679710       -2.81119391983350       -2.45501158306401
H           -0.01432982873780       -2.46948799706348        0.47433331907250
C           -4.95209605119148       -4.94056660243101        1.81299670416845
C           -4.77447721142924       -3.26265488870249        0.00287088516444
C           -3.65246037163514       -5.44380867501979       -0.28643034092499
H           -5.29313133648021       -4.16457410821546        2.49410842961673
H           -5.83140007463592       -5.35677395384303        1.32195775144450
H           -4.49252568327417       -5.73363215573797        2.39050776630498
H           -4.17943847502515       -2.88028947537455       -0.82404425092491
H           -5.70880631416881       -3.65713629405399       -0.39483859707608
H           -5.01372636316000       -2.42960811500165        0.66060144530413
H           -2.86603019309337       -5.06968910207706       -0.94394755790605
H           -3.31489951260184       -6.36070924096404        0.18971924372824
H           -4.52002530614209       -5.68698171065720       -0.89871585306018
C           -0.30327933815276       -4.28632430895844        3.03425842334843
C           -2.00256008273354       -6.08313939105201        2.89788677594876
C           -0.51636422650909       -5.60216251045438        0.94009571432731
H           -0.78074207448700       -3.93542832484575        3.94792361356396
H            0.48627086531318       -4.98163215750229        3.31670785444750
H            0.16390593003895       -3.44251113420954        2.52766091561621
H           -2.60786402579709       -6.72099679580176        2.26040839798634
H           -1.24606835545075       -6.71371713277438        3.36520484859660
H           -2.62365546647812       -5.67194268288503        3.69135752755586
H           -1.13212717068282       -6.27014102062073        0.34574677266658
H           -0.13525337010557       -4.81372693152455        0.29126593586919
H            0.32960062671631       -6.17343843727470        1.31965826607554
O           -1.32073275876111        2.05136297896188       -1.65433081709022
H           -1.85963476794510        1.96387974486250        0.29575024755742
O            2.29908260445658        0.29968557371749       -0.76242495595426
H            0.92255415191664        0.45219812059883       -2.24140422304364
