56
 energy: -95.006811962050 gnorm: 0.000949002984 xtb: 6.7.1 (edcfbbe)
Ru          -1.36370884054121       -1.79926521749073        0.34257700047075
H           -2.76210367727705       -1.20294783118431        0.10932086417294
N           -1.43033809067046       -0.97583360462620        2.26072198288120
C           -1.97890303725024       -1.66960463504967        3.27546813129384
C           -0.79350842489921        0.17345249903376        2.55370637829220
C           -1.77665574894980       -1.31568921443043        4.60239889908487
C           -0.55281150303799        0.57401265412036        3.85859188640729
C           -1.01533861181820       -0.20142857943779        4.90844953318823
H           -2.21621885412576       -1.91376275108714        5.38562001791533
H           -0.00894972623587        1.48691186659808        4.04142657733276
H           -0.81788011062116        0.07433362304035        5.93190726455744
P           -2.31566039881438       -3.61996411536317        1.37268037265447
C           -3.90879855359160       -4.43110916879682        0.72975663345656
C           -1.14870005068554       -4.96282492724998        2.05721075162132
P           -0.27870688455768        0.04291252141056       -0.09057018776304
C            1.61031563017655       -0.04372180650588       -0.29199136376310
C           -0.67806309877122        1.36988859226433       -1.38402812395362
C           -2.89723706134477       -2.79786632138572        2.92415333154054
H           -3.86641741471151       -2.35276564737696        2.66286682713391
H           -3.03998051579314       -3.48721884044015        3.75925508464984
C           -0.42262242587789        1.07734485168542        1.41299658110200
H           -1.26878469111620        1.75757353653006        1.23198658962282
H            0.47185385242703        1.67546477008154        1.61427698110303
C           -1.31623694481755       -2.52171477414286       -1.35893529655443
O           -1.29908686167861       -2.95491224869372       -2.42505917951339
H           -0.00718707787929       -2.41380876668711        0.70049494495844
C           -4.80959710528091       -5.04231207454259        1.80399872144233
C           -4.70595492276173       -3.33894229464707        0.01342176264025
C           -3.51484255620531       -5.47476744272123       -0.31656692260246
H           -5.17142176518138       -4.28522769523137        2.49567434404489
H           -5.67823304965530       -5.48286496488982        1.31544424185540
H           -4.32023057110106       -5.82565465822417        2.36981784172204
H           -4.14271122372757       -2.94547425573570       -0.83052053632743
H           -5.64155765581827       -3.75463808546774       -0.35852458784526
H           -4.94621163801228       -2.51009983918338        0.67699065859843
H           -2.75735429542981       -5.06065028108883       -0.98438200667362
H           -3.13083123258071       -6.38381454746809        0.13877409251807
H           -4.38324977665590       -5.74511145360482       -0.91603717657610
C           -0.20479346789929       -4.26395705933899        3.04183985968136
C           -1.81833662162929       -6.11920105112655        2.79733235775232
C           -0.32613595349405       -5.50353608083250        0.88655251215957
H           -0.70327602574411       -4.02203897845180        3.97858058277608
H            0.63347873395693       -4.92023744175229        3.27056502887100
H            0.20254459239378       -3.35028728280796        2.61175885267530
H           -2.39473732625727       -6.75244155737317        2.12955360109274
H           -1.04062627373659       -6.73944739343371        3.24295921428682
H           -2.45848293183087       -5.76651686444995        3.60372252975753
H           -0.92223941802097       -6.12924455456120        0.22882853505100
H            0.08027118714244       -4.67882249752824        0.30197645947586
H            0.50475059355797       -6.10104785033194        1.25882513228864
Cl          -0.08848629987162        0.75568585002214       -2.92859141205760
Cl          -2.44440785824202        1.42887599380501       -1.40313613967138
Cl          -0.08749802119626        3.01152874022756       -1.09012895979396
Cl           1.90878869270452       -1.33606263725089       -1.45730274972018
Cl           2.51209139128094        1.39575510476903       -0.76106988840417
Cl           2.17802326889008       -0.55578394544107        1.30764003082055
