26
Coordinates from ORCA-job template E -1219.467857827472
  Ru         -0.19996688484655      1.74575668390325      0.74819861015136
  H          -0.28878643079720      0.13891225051727      1.27995812869799
  N          -0.35545394360575      1.02850385796443     -1.32529009205716
  C          -1.56011209052422      0.98794376735965     -1.94071661280082
  C           0.76607847400902      0.78292421548462     -2.04245435389286
  C          -1.66516886499037      0.80565173060325     -3.32227753249932
  C           0.71846282072447      0.59512487119870     -3.42626056413955
  C          -0.51071720122151      0.62654344563119     -4.08010708144343
  H          -2.65138642488690      0.80010883744846     -3.78934340628330
  H           1.64456586117165      0.42069848953736     -3.97633498038976
  H          -0.56958928577677      0.49563681035579     -5.16302903682989
  P          -2.46340352117317      1.92065955846198      0.54242745641257
  H          -3.45510882976868      1.30296602578329      1.35562255382582
  H          -3.13274358272098      3.16561487568584      0.37896899399309
  P           2.03349497118810      1.57329962241837      0.32266430588304
  H           2.86341704546539      2.69592256997045      0.04642575790801
  H           2.99657316545379      0.82822022291562      1.05941169728069
  C          -2.79753481907711      1.06731945181360     -1.08425299018841
  H          -3.08438555388442      0.03378258906058     -0.82152071863694
  H          -3.64056040081186      1.50534076306015     -1.63799843972033
  C           2.06605535109495      0.64216904225937     -1.29431249547689
  H           2.17350350194877     -0.42091076707611     -1.01488808788717
  H           2.92554951077967      0.89975240375607     -1.92988324344494
  C          -0.06912759122860      2.36183782259581      2.48454544639014
  O           0.01165499791371      2.74404434233755      3.57537201604734
  H          -0.12331027443565      3.28827651695423      0.07107466910349
