78
 energy: -96.642749912089 gnorm: 0.000523748130 xtb: 6.7.1 (edcfbbe)
Ru          -1.37147180904683       -1.82329708662358        0.46955009677787
H           -2.73983231900925       -1.12740148453298        0.23594337133197
N           -1.44082059268447       -1.05963783595813        2.39055121047005
C           -1.90915962501829       -1.79788240855045        3.41606206176224
C           -0.86744599121896        0.12377621938340        2.68160122166341
C           -1.64906304714872       -1.47197234091156        4.73801701390357
C           -0.57253798005948        0.50120813733266        3.98393162460774
C           -0.92175489140707       -0.33017847768547        5.03475008993244
H           -2.01909511505485       -2.10884057639087        5.52715787459486
H           -0.07579291783212        1.44171952280736        4.16680526357980
H           -0.67664124500095       -0.07479924448295        6.05356180858644
P           -2.31311790190921       -3.66407465322378        1.45471111811261
C           -3.94738357483406       -4.43460329768511        0.85340967040333
C           -1.15404736157817       -5.07063828348824        2.03137579590431
P           -0.24319312011314        0.09866254038368       -0.01106329519231
N            1.45781101566628        0.20046597756766       -0.14077228022533
N           -0.64632537536533        1.16445379734123       -1.25031163295187
C           -2.82044630779095       -2.93587907911758        3.07694439882377
H           -3.81418513024268       -2.50254733657068        2.90219312013663
H           -2.89422028094104       -3.66426253348432        3.88771077575226
C           -0.64618304804178        1.06391490669989        1.54520883151210
H           -1.62593202868047        1.49330484149229        1.28336141714384
H            0.02013373310570        1.88107582468214        1.82444161841408
C           -1.36877994963181       -2.56260594192095       -1.21340553071103
O           -1.42806651222571       -3.05457630464146       -2.26220175027223
H            0.02569006195712       -2.39884210151408        0.80394772746422
C           -4.81616574593627       -5.08810573738598        1.92938366907943
C           -4.75297713654459       -3.29247690661314        0.22996737365281
C           -3.62469867436710       -5.42965891926553       -0.26228030834062
H           -5.12265083431510       -4.36834720744771        2.68501554185922
H           -5.71998287841829       -5.47313807479224        1.45664797305670
H           -4.32431945001585       -5.91890885432655        2.42071374245732
H           -4.21358042855576       -2.86584934639667       -0.61324724100526
H           -5.71323523158909       -3.66731757444289       -0.12347376947365
H           -4.94351232170514       -2.49492899608363        0.94623856391621
H           -2.89445094178829       -4.99425762482776       -0.94570960308781
H           -3.23371895685245       -6.36609694092360        0.12751632425267
H           -4.52688106831837       -5.65696653127901       -0.82992743621565
C           -0.16079507213815       -4.44032410164989        3.01360478643250
C           -1.81070345114838       -6.25717401396827        2.73420664843454
C           -0.38293637273966       -5.55769074754996        0.80364453863552
H           -0.61706186954765       -4.24249104173117        3.98178990829611
H            0.67904573529842       -5.11600883238914        3.17215869846547
H            0.23449010134000       -3.50839202815513        2.61294841965308
H           -2.41910059975169       -6.84773597329013        2.05559218171571
H           -1.02591281221727       -6.90912569621312        3.11945791766333
H           -2.41799889285115       -5.93978434256637        3.57986711761089
H           -1.01609029382779       -6.12911353497184        0.13092622793711
H            0.01637004821170       -4.70402536951026        0.25622256945808
H            0.44808259807769       -6.19346344600665        1.10823664118911
C           -1.85576617681110        0.95446268213925       -2.02144522088277
C           -1.65118278922540        1.07025512945778       -3.52927547920621
C           -0.11445118706328        2.51884597842350       -1.22706063872352
C            1.02348180100370        2.75881772888933       -2.21782967684952
H           -2.20856928046137       -0.05460756203120       -1.78335240584536
H           -2.63569178070833        1.66833262866452       -1.71529870146692
H           -0.84316570760027        0.42046592199644       -3.85308332395463
H           -2.56340965113486        0.76666671772898       -4.03744816313456
H           -1.42490495490775        2.09340049665090       -3.82013513813237
H           -0.93193362514602        3.22130179421936       -1.43046118314728
H            0.27134754278735        2.73469807352557       -0.22690258568362
H            0.72327705498133        2.51509085415572       -3.23188643447033
H            1.31884855991490        3.80586681078994       -2.18385951794887
H            1.87802772209757        2.14602598599923       -1.94767804179249
C            2.02594799061920       -0.87761620611208       -0.95288362618194
C            1.45474523450100       -0.90756468439679       -2.36038213689343
C            2.31568949919064        0.54080629805214        0.98204115691738
C            2.48882373550764       -0.55462528776602        2.03368996179670
H            3.10847488928593       -0.71618480675838       -1.00300764253516
H            1.84321899737947       -1.85609016102340       -0.48712815538441
H            1.63239710706841        0.03342856507332       -2.87269044219071
H            1.92157679046573       -1.71335205118497       -2.92329635255259
H            0.38202132281206       -1.09159305300572       -2.31408351445288
H            3.29936839272027        0.79847555776878        0.56841119554602
H            1.93007408707471        1.44195863713555        1.46090004005557
H            3.01117360264688       -1.41222422951601        1.61793555953526
H            3.06059011051459       -0.17495651548660        2.87796917540996
H            1.51541774980961       -0.88625067666358        2.38936250421045
