62
 energy: -91.317872071848 gnorm: 0.000839912985 xtb: 6.7.1 (edcfbbe)
Ru          -1.22854621361999       -1.86851773147379        0.40485945244132
H           -2.61020820273844       -1.20468607012766        0.17551311059146
N           -1.31661554218491       -1.06848391705663        2.32494625549302
C           -2.12709470063836       -1.61462519778853        3.25282527965688
C           -0.57264900928372       -0.00508711713580        2.68248424914572
C           -2.18170026275466       -1.14380312469848        4.55647662001848
C           -0.59176347678664        0.51185381977137        3.97018484449358
C           -1.39691174843331       -0.06792111842163        4.93432426413838
H           -2.84352475200777       -1.61836968375454        5.26502129836527
H            0.02822302330331        1.36285148040972        4.20469532262202
H           -1.42069702664902        0.31200137452843        5.94335292197428
P           -2.26538184298204       -3.63713099922767        1.40660809318696
C           -3.77439580721249       -4.49501895866758        0.63375029520534
C           -1.19307875572062       -4.94151316308816        2.29693848193308
P           -0.15040542905347        0.04245300286248       -0.01688856613553
C            1.51897744229213        0.05453037609541       -0.83184181575151
C           -0.79781403365511        1.61799381458685       -0.78062455069322
C           -3.02965436648613       -2.73141544664277        2.82906154573834
H           -3.94044192712114       -2.28204213910465        2.41326558088591
H           -3.30448233018059       -3.37058962929896        3.67199749058087
C            0.31316111755335        0.63834759621511        1.65719503785433
H            0.24789028168226        1.73180262617153        1.71259232683037
H            1.35957859006249        0.33837973392674        1.81391441075517
C           -1.16737562438251       -2.54874181575560       -1.30957784235749
O           -1.11456946507375       -2.96620363552008       -2.38540464730288
H            0.19065803843119       -2.42632735971874        0.71177546942328
C           -4.79613703398849       -5.04593404414747        1.62934960164598
C           -4.47824114090283       -3.45232084327432       -0.23706522922818
C           -3.26195971314699       -5.59868501285134       -0.29250991514449
H           -5.23158582915007       -4.25105060742662        2.23020392351026
H           -5.60467155175029       -5.51696845230885        1.07042352748326
H           -4.37612039408671       -5.79287636588296        2.29231654825215
H           -3.80456000815977       -3.08479313392965       -1.00884766531304
H           -5.34765489055135       -3.90164080041669       -0.71620074390411
H           -4.81757770412791       -2.60029102003426        0.34835439138709
H           -2.42234586079233       -5.22342905442753       -0.88013077949763
H           -2.94649158763457       -6.47864318447619        0.26196521793750
H           -4.04976674044269       -5.90377838318138       -0.98049026044665
C           -0.32821394816969       -4.16292951792532        3.29370788654386
C           -1.93958013830888       -6.02934136890480        3.06565452154420
C           -0.27103060017517       -5.57447108231442        1.25352975826526
H           -0.91055140481326       -3.79807689099947        4.13829935276461
H            0.45594706941072       -4.81071528515216        3.68412539999345
H            0.15320357824156       -3.31910442333440        2.80085484150751
H           -2.45510972390751       -6.71564494166605        2.40013649462904
H           -1.21508691544484       -6.61085308772865        3.63622423386570
H           -2.65249687836979       -5.60804241799051        3.77180398418944
H           -0.79499250776297       -6.29422150627891        0.63201621015786
H            0.14378435088560       -4.79825155920110        0.61036560599424
H            0.55242951031678       -6.09083630295629        1.74522826316798
O           -0.90902625606373        2.67542213144290       -0.22045558260828
O           -1.14458353767537        1.33718765046530       -2.02020268372529
C           -1.72794222709319        2.37975769355608       -2.79690697006309
H           -2.56400520767411        2.82704622980011       -2.25606140549788
H           -0.98568229734900        3.15254817418711       -3.00806440615261
H           -2.07032848875540        1.91754007600169       -3.71905223187329
O            2.57142875572556        0.19493575229874       -0.27171673102277
O            1.33075107920143       -0.20487056053084       -2.11194539397433
C            2.48738352612997       -0.38515104782995       -2.92632107638436
H            2.98108519480436        0.57425704222340       -3.09520008347649
H            3.18577158827255       -1.06600194314278       -2.43671228393099
H            2.13585073995457       -0.80474490818417       -3.86526903041835
