78
 energy: -96.639260008769 gnorm: 0.000697305724 xtb: 6.7.1 (edcfbbe)
Ru          -1.22528627619108       -2.02261023853631        0.23125262984067
H           -2.55702643698344       -1.57746898409505       -0.41980863610157
N           -1.62968097632344       -0.85857349240744        1.89364009938323
C           -2.01824684913034       -1.42150374653820        3.05264159967805
C           -1.22574927118072        0.42559753044090        1.91904031658969
C           -1.84129118301378       -0.78849929914260        4.27352927795214
C           -1.02524009304425        1.11015770272062        3.10820781615334
C           -1.28920925716724        0.48161373601719        4.31428457851665
H           -2.13614602529960       -1.29044386618809        5.18249348618602
H           -0.66703714842787        2.12824585642333        3.08411662847791
H           -1.10877676043657        0.98092098217394        5.25332365103469
P           -2.17417342111645       -3.68668448650940        1.49521430069422
C           -3.78213511774778       -4.58545621794861        0.99132137031648
C           -0.99747625590437       -4.95390795947140        2.30449630515098
P           -0.29836295144810       -0.10818769296713       -0.55726231362014
N            1.33673499289786        0.21744602777332       -0.33083197323880
N           -0.50693819766351        0.57490373520801       -2.12085031755014
C           -2.75382678861245       -2.72449402250384        2.97024597426763
H           -3.80778469033243       -2.47890206055021        2.78651254063185
H           -2.69110882544037       -3.28766639838099        3.90399684249258
C           -1.08480593928971        1.11251191192448        0.59926251879377
H           -2.09778746434497        1.28436869825832        0.22077478579931
H           -0.56223048153752        2.06497078280743        0.69406488203409
C           -0.78783025243325       -3.07430178830790       -1.21119728671506
O           -0.51243419713076       -3.73569392833887       -2.12365139977096
H            0.09748510190135       -2.33234058272626        0.96171209463593
C           -4.57635646031004       -5.26636663340576        2.10907264586303
C           -4.68892746637283       -3.52621029980259        0.35859403361406
C           -3.40679429063303       -5.58689137470680       -0.10095847320290
H           -4.66172201542948       -4.63469170124578        2.99039422247800
H           -5.58567069419383       -5.46472523284646        1.74806450454131
H           -4.14777384194869       -6.21733539817170        2.40250068337877
H           -4.16218342925792       -3.00250302678380       -0.43517075306066
H           -5.56966622999427       -4.00421206152627       -0.06927677296972
H           -5.02955820973473       -2.79253657853744        1.08827977592609
H           -2.75301429142516       -5.10404276479925       -0.83025226857654
H           -2.89751382456614       -6.45670999768999        0.30761578270115
H           -4.30018072016174       -5.93544099970593       -0.61846366437788
C           -0.09532157294150       -4.18655671329841        3.27706863057710
C           -1.65167400972269       -6.09619172466167        3.07846473868667
C           -0.13269839499813       -5.52690090847088        1.18057833235222
H           -0.59961229388954       -3.97435085311103        4.21784542916758
H            0.78948335965787       -4.78123729238144        3.50011181474571
H            0.23668952423065       -3.24816012335300        2.83656540773294
H           -2.13561173948928       -6.80606749997354        2.41411469199919
H           -0.87591418221394       -6.63597210340129        3.62250070879175
H           -2.37350414664801       -5.73079136772669        3.80542818958683
H           -0.72932238680432       -6.08262711660938        0.46122211899167
H            0.36906712682575       -4.71821211799049        0.65100068704281
H            0.62289483850809       -6.19737849651528        1.58932502133466
C           -1.62305904620823        1.34509163240556       -2.67216489771331
C           -3.00147190753498        0.71859957712240       -2.47068426544709
C           -1.59157758784724        2.80248357031663       -2.20847302679288
C           -0.02422054250839       -0.42112195541146       -3.07263163895230
H           -1.43236010539628        1.36494647659507       -3.75467097483942
H           -3.30716707326564        0.75225329416878       -1.42866971001113
H           -2.98698453000273       -0.32376041575373       -2.77936097518363
H           -3.74034122936187        1.24929367640268       -3.06691996257331
H           -0.58355562315429        3.19986854333174       -2.30163952744307
H           -2.25235814354641        3.39245205059019       -2.84003060457512
H           -1.92088943883146        2.91561437953690       -1.18086048484861
H            0.37438747319801        0.07698857324329       -3.96082131795173
H            0.77543244858347       -1.00439363534558       -2.60869443985869
H           -0.80833023796778       -1.12131999554001       -3.38173030883729
C            1.83052524176324        1.57190431803290       -0.53831989259256
C            2.47027591140526        2.11950918983701        0.74084835029292
C            2.79919531560137        1.69301539533678       -1.71566399696824
C            2.32903684718260       -0.83200525261036       -0.25204574374990
H            0.95116698680484        2.17716971150513       -0.78274305319399
H            3.42429082183495        1.63484364729825        0.93291315282556
H            2.64445568024291        3.18896047832284        0.64523172777215
H            1.81931710869767        1.94213343941607        1.59424362699640
H            2.36391700462427        1.24672996062524       -2.60548294210257
H            2.99611240509012        2.74402301621007       -1.91489248855450
H            3.74654966154403        1.20572509605368       -1.49993184222997
H            2.92513515390359       -0.91386803341440       -1.16557152582780
H            1.81125545733849       -1.77749015827637       -0.09208699052867
H            3.00261611400565       -0.65923653017001        0.59129705222255
