66
 energy: -83.977937733736 gnorm: 0.000762841969 xtb: 6.7.1 (edcfbbe)
Ru          -1.23106970581889       -1.74666583482460        0.43347042124397
H           -2.56469176940181       -1.20455182743375       -0.15286668025113
N           -1.65134668870205       -0.83177423875998        2.25192570853815
C           -2.02558891412327       -1.56076568097400        3.31890773555396
C           -1.28042181074640        0.44641369867996        2.45758789237485
C           -1.87658802730836       -1.09584299907298        4.61694284149772
C           -1.11055617083467        0.96716672474899        3.73194498942131
C           -1.36736081287275        0.17353906124584        4.83718624647259
H           -2.16034079338059       -1.72696652048763        5.44534071153705
H           -0.77892408447616        1.98735603195990        3.84918232241113
H           -1.21221579725795        0.54498374479390        5.83801986012908
P           -2.16811651827024       -3.58136412876598        1.44227971138118
C           -3.78971099567934       -4.38557958822387        0.83296422710800
C           -0.98026908858480       -4.96223252799775        2.01464994668386
P           -0.34403101649436        0.26294718816965       -0.06504905990807
N            1.27396618929060        0.66251871981860        0.17381886165006
N           -0.67656479197848        1.16626298010242       -1.49022184244537
C           -2.72013576932223       -2.86399240749750        3.06087972631030
H           -3.78797769076404       -2.63325323627198        2.95632613141976
H           -2.60279797654851       -3.55778236419504        3.89618391603917
C           -1.13309150674191        1.31168654506461        1.24785379950772
H           -2.14332425970655        1.56386480089196        0.90739287096529
H           -0.58134730028245        2.22801798768835        1.46617020224926
C           -0.78673460150546       -2.57507951567065       -1.14678723154090
O           -0.51081542322875       -3.09522212293762       -2.14582967843743
H            0.09870016496873       -2.14512524230573        1.10646208048288
C           -4.56269008988154       -5.24037254529485        1.84082625634308
C           -4.70402596750027       -3.23517589870330        0.40243078282344
C           -3.44213292881166       -5.19424081159341       -0.41684922034686
H           -4.62192435854115       -4.76547872989528        2.81744826397918
H           -5.58178053966427       -5.37161796152956        1.47714101500012
H           -4.13470891845049       -6.22854974221537        1.96012146852593
H           -4.19500521130410       -2.59643209584905       -0.31451176702900
H           -5.60117273432623       -3.63468679798517       -0.06908910598747
H           -5.01636970347542       -2.62273244593347        1.24734735942155
H           -2.80142602395671       -4.59877790632051       -1.07062490941631
H           -2.92829328707704       -6.11988915973231       -0.16789391992500
H           -4.34774358941699       -5.45166389445377       -0.96536511096979
C           -0.05898082278521       -4.36390366337872        3.08321665453242
C           -1.62466197291163       -6.21593733350122        2.60166956631696
C           -0.13668893223423       -5.34414269134278        0.79727540755190
H           -0.54022748531348       -4.32255397085608        4.05845511819439
H            0.83504283971978       -4.97839032607915        3.17906736193850
H            0.25540866258180       -3.36000571824230        2.80332550076485
H           -2.12187594924908       -6.80658270925953        1.83782702646604
H           -0.84131544862598       -6.83794878962806        3.03588174264549
H           -2.33287284670062       -5.97477752269373        3.39110273606571
H           -0.74904605766246       -5.76272553072537        0.00214480074846
H            0.36977314627523       -4.46279433937109        0.40640218256408
H            0.61487169413820       -6.08254418259639        1.07537454580180
C           -2.05263164390916        1.52624052405097       -1.77989226131819
C           -0.09390068436659        0.46271052583907       -2.62686523737542
H           -2.07849753620522        2.02781777423939       -2.74906717013368
H           -2.71304670460868        0.65224053403285       -1.82075919019734
H           -2.42549085889821        2.22309061824672       -1.03208592506360
H            0.00025499651989        1.15299910105559       -3.46842710208151
H            0.89797504240386        0.09422762617259       -2.35972343598261
H           -0.70368523371036       -0.39500211675123       -2.93650895441848
C            1.73606851291519        2.00610639208091       -0.10896728404994
C            2.32493399055935       -0.32745238683646        0.10004931928657
H            0.88639964613128        2.68215957629797       -0.17593793368047
H            2.40553870371628        2.34052618729128        0.68942785964021
H            2.28365591556859        2.05328238933045       -1.05694315430357
H            3.03509524291823       -0.17359301348849        0.91850043064201
H            1.88196693295143       -1.31839196040346        0.19681109203517
H            2.87770321688337       -0.27422170598704       -0.84573344020195
