54
 energy: -71.327296192774 gnorm: 0.000476483065 xtb: 6.7.1 (edcfbbe)
Ru          -1.51521548984867       -1.72179110006759        0.30106865580349
H           -2.93607585934658       -1.10986121457246        0.41620651704136
N           -1.24736044647010       -1.10221573288213        2.25270850694220
C           -1.92176421996718       -1.69078757509515        3.25933758929939
C           -0.43735331513173       -0.06732334067085        2.55138437633666
C           -1.80664509938847       -1.26538054196875        4.57432031926553
C           -0.29368539136283        0.40780667670081        3.84641733482981
C           -0.98392528873373       -0.19555138937960        4.88335358351210
H           -2.36842878038354       -1.76953147127398        5.34632212405343
H            0.36322283180789        1.24344883998826        4.03254389968001
H           -0.88481160455253        0.15572615477655        5.89840020281669
P           -2.31515977719672       -3.59488058708863        1.32840073759506
C           -3.91064973665740       -4.45995249725845        0.76627017748548
C           -1.08183060935979       -4.91754325947282        1.94452033855860
P           -0.66004817045739        0.30332125013570       -0.10965747159500
N            0.51714031600955        0.77784622233709       -1.23988799821264
N           -1.62664975507672        1.67429641274532       -0.08877406733655
C           -2.85505470539453       -2.81155795692101        2.91825964429691
H           -3.83576826356455       -2.37393773271509        2.69322878800579
H           -2.96521773541637       -3.51115554014804        3.75138020288945
C            0.33204565907842        0.55060968740155        1.43110914138683
H            0.55438945469527        1.60461990529166        1.61437348464189
H            1.27218692413243        0.00360469877419        1.29176350116483
C           -1.77111748940529       -2.21001802881938       -1.45542068930146
O           -1.91307676619190       -2.47110816579087       -2.57662563280497
H           -0.04492486145230       -2.23669341819829        0.25399465256197
C           -4.73889244154496       -5.10542763517152        1.87817779394766
C           -4.77615028789151       -3.39269551590716        0.09299861564416
C           -3.53635443050930       -5.48790864313256       -0.30224119308300
H           -5.08975562709193       -4.36367596520128        2.59192612961896
H           -5.61623000256771       -5.57248883115396        1.43025429216479
H           -4.19497293882820       -5.87376602772458        2.41480849970986
H           -4.24819700865653       -2.95413837700062       -0.75190248711382
H           -5.70095979660383       -3.84246033451268       -0.26766782111073
H           -5.03576578216750       -2.59099803686889        0.78127158713425
H           -2.81938176378352       -5.04849204138614       -0.99802440779427
H           -3.10797277961947       -6.38682894829960        0.13354761746826
H           -4.42202487062954       -5.78064935397396       -0.86561569461498
C           -0.07312663839009       -4.16694237583386        2.82059600050430
C           -1.65719395399210       -6.07049774652383        2.76353563491309
C           -0.33711335179202       -5.46040828984845        0.72361082356484
H           -0.50927216779426       -3.85586294411880        3.76882572075001
H            0.77712014392439       -4.81239820665864        3.04006985701501
H            0.30206023010291       -3.28860135864546        2.29607492518864
H           -2.26507547515922       -6.73531276027214        2.15642748688944
H           -0.83164402295640       -6.65909323501806        3.16504946109806
H           -2.24643066151386       -5.71294616451236        3.60595104309824
H           -0.94182384583527       -6.16182204981298        0.15695165287132
H           -0.05866444639841       -4.63531128579564        0.06775850971634
H            0.57101398422802       -5.97520380223317        1.03582227798334
H           -1.23502954121674        2.47839838890136       -0.56576381036101
H           -2.58686804437681        1.49229244783203       -0.35120166681080
H            1.28330639940671        0.10931043620209       -1.23622090913402
H            0.11778336843312        0.77928279184880       -2.17682359317780
