50
 energy: -71.109793019812 gnorm: 0.000808907802 xtb: 6.7.1 (edcfbbe)
Ru          -1.45320697258261       -1.69919096965408        0.35610621587280
H           -2.84979900980540       -1.05918077320926        0.11813490479227
N           -1.50513316433951       -0.94266934817256        2.29456660782529
C           -1.95996329765619       -1.69577998878248        3.31303762600372
C           -0.88992255064033        0.21809768212441        2.58761677447304
C           -1.66681500649621       -1.39046349270729        4.63448265348699
C           -0.55773400267391        0.57082673711841        3.88643059111684
C           -0.91282689116676       -0.26745924529886        4.93015483588836
H           -2.02960198713427       -2.03272808723276        5.42189093449190
H           -0.03096351091711        1.49383076750594        4.07097693856046
H           -0.64181192174575       -0.03116093396681        5.94660324021543
P           -2.38096869649779       -3.57379453074127        1.34913935300586
C           -4.01342283770686       -4.33590376195445        0.74285358173552
C           -1.19703173615413       -4.95727986578600        1.91212461466885
P           -0.44397888520406        0.20498787736204       -0.09642236129775
I            1.99454613078581        0.35059576491287       -0.34726278880669
I           -1.13790231602985        1.87630931817863       -1.73861620438468
C           -2.87861583548939       -2.82694174994156        2.97043002338474
H           -3.87182597877182       -2.38988639509739        2.79900786234055
H           -2.95258502880085       -3.55481342075402        3.78162010306446
C           -0.66305679452164        1.18225849733694        1.46209450483163
H           -1.59070266157521        1.76163404480370        1.33578976803144
H            0.15239319510897        1.88134417761350        1.67154440276644
C           -1.38082892337121       -2.39284604764440       -1.35703796239061
O           -1.34464359486136       -2.81744660575952       -2.42723545824112
H           -0.06147597029621       -2.28223050585864        0.70439637693726
C           -4.86124055951381       -5.01788901366183        1.81760930958286
C           -4.83994018572959       -3.19276209509164        0.14848933766693
C           -3.68486882223091       -5.30615708856905       -0.39291708459597
H           -5.13770190494129       -4.32429503131242        2.60894486174137
H           -5.78250533864463       -5.37164350814038        1.35486242570911
H           -4.36935550635543       -5.87532124555037        2.26130226085924
H           -4.32275293345459       -2.74549505448305       -0.69800607101728
H           -5.79844863935140       -3.57609930137214       -0.19911726652082
H           -5.03758026437211       -2.40999913561932        0.87951556314249
H           -2.96970834980933       -4.84799917294581       -1.07848026207662
H           -3.27352632755083       -6.24214074733657       -0.02356110842417
H           -4.58864701439393       -5.53914053951414       -0.95474440984657
C           -0.21296132378635       -4.32991916446172        2.90572062077274
C           -1.85053320917353       -6.15482468541380        2.59912007070934
C           -0.42032539919493       -5.42655926139748        0.68072995372667
H           -0.67249559541631       -4.15389961106346        3.87677088176016
H            0.63151380617433       -5.00138370906883        3.05361550010384
H            0.18150297778639       -3.38894112349688        2.52540418284226
H           -2.44223284158391       -6.74782508831961        1.90798609415290
H           -1.06354980817281       -6.80006349499348        2.98961556035029
H           -2.47214221837250       -5.85017331531832        3.43900312233579
H           -1.05709833197756       -5.96112306198127       -0.01873946881607
H            0.01629715043059       -4.57278250250643        0.16368948663593
H            0.38718911366878       -6.09320744026226        0.98056572743434
